Pcp_File_Version=4
    2
    1  0.000000e+000  1.000000e+000  1.000000e+000
    2 -1.000000e+000  1.000000e+000  1.000000e+000
    2    1    1    1 x         h      Mat  Lay      Beta    iCnc iSolid iAds          Temp          Conc           SConc
    1 -0.000000e+000  {VWC}    1    1  0.000000e+000    1    1    1  2.000000e+001  {CO2}
    2 -1.000000e+000  {VWC}    1    1  0.000000e+000    1    1    1  2.000000e+001  {CO2}
0
